MODEL 1
REMARK VINA RESULT:     -10.5      0.000      0.000
REMARK  14 active torsions:
REMARK  status: ('A' for Active; 'I' for Inactive)
REMARK    1  A    between atoms: N1_1  and  C31_43 
REMARK    2  A    between atoms: C2_3  and  C3_4 
REMARK       I    between atoms: C3_4  and  N2_6 
REMARK    3  A    between atoms: N2_6  and  C4_8 
REMARK    4  A    between atoms: N3_12  and  C10_15 
REMARK    5  A    between atoms: C10_15  and  C11_16 
REMARK    6  A    between atoms: C11_16  and  O2_17 
REMARK    7  A    between atoms: C11_16  and  C12_19 
REMARK    8  A    between atoms: C12_19  and  C13_20 
REMARK    9  A    between atoms: C13_20  and  C21_28 
REMARK   10  A    between atoms: C13_20  and  C14_21 
REMARK   11  A    between atoms: C14_21  and  C15_22 
REMARK       I    between atoms: C21_28  and  N4_30 
REMARK   12  A    between atoms: N4_30  and  C22_32 
REMARK   13  A    between atoms: C23_33  and  O4_34 
REMARK   14  A    between atoms: C31_43  and  C32_44 
ROOT
HETATM    1  N1  MK1 B 902      17.425  21.335   8.205  1.00 28.25     0.096 N 
HETATM    2  C1  MK1 B 902      16.914  20.397   7.170  1.00 30.30     0.307 C 
HETATM    3  C2  MK1 B 902      16.309  20.903   5.876  1.00 27.27     0.200 C 
HETATM    4  N3  MK1 B 902      15.181  21.762   6.382  1.00 28.91    -0.395 N 
HETATM    5  C8  MK1 B 902      15.410  22.622   7.569  1.00 26.24     0.148 C 
HETATM    6  C9  MK1 B 902      16.344  22.100   8.642  1.00 27.47     0.292 C 
ENDROOT
BRANCH   1   7
HETATM    7  C31 MK1 B 902      18.250  20.768   9.278  1.00 36.25     0.312 C 
BRANCH   7   8
HETATM    8  C32 MK1 B 902      17.856  19.467   9.986  1.00 42.75    -0.015 A 
HETATM    9  C36 MK1 B 902      18.870  18.625  10.390  1.00 44.71     0.011 A 
HETATM   10  C35 MK1 B 902      18.518  17.432  11.015  1.00 49.34     0.018 A 
HETATM   11  C34 MK1 B 902      17.169  17.121  11.213  1.00 50.60     0.087 A 
HETATM   12  N5  MK1 B 902      16.085  17.913  10.836  1.00 51.38    -0.375 N 
HETATM   13  C33 MK1 B 902      16.523  19.094  10.215  1.00 47.41     0.096 A 
HETATM   14  H5  MK1 B 902      15.107  17.668  10.991  1.00  0.00     0.164 HD
ENDBRANCH   7   8
ENDBRANCH   1   7
BRANCH   3  15
HETATM   15  C3  MK1 B 902      15.836  19.719   5.078  1.00 28.85     0.242 C 
HETATM   16  O1  MK1 B 902      14.954  18.991   5.514  1.00 29.59    -0.271 OA
HETATM   17  N2  MK1 B 902      16.424  19.508   3.916  1.00 22.29    -0.351 N 
HETATM   18  H2  MK1 B 902      17.189  20.147   3.700  1.00  0.00     0.163 HD
BRANCH  17  19
HETATM   19  C4  MK1 B 902      16.160  18.528   2.911  1.00 23.47     0.022 C 
HETATM   20  C7  MK1 B 902      17.366  18.054   2.224  1.00 22.75     0.037 C 
HETATM   21  C5  MK1 B 902      15.336  19.222   1.811  1.00 27.66     0.037 C 
HETATM   22  C6  MK1 B 902      15.484  17.417   3.391  1.00 21.71     0.037 C 
ENDBRANCH  17  19
ENDBRANCH   3  15
BRANCH   4  23
HETATM   23  C10 MK1 B 902      14.411  22.502   5.402  1.00 20.86     0.149 C 
BRANCH  23  24
HETATM   24  C11 MK1 B 902      14.558  24.021   5.509  1.00 21.68     0.136 C 
BRANCH  24  25
HETATM   25  O2  MK1 B 902      15.594  24.113   4.577  1.00 15.87    -0.394 OA
HETATM   26  H2  MK1 B 902      16.417  24.095   5.051  1.00  0.00     0.210 HD
ENDBRANCH  24  25
BRANCH  24  27
HETATM   27  C12 MK1 B 902      13.463  25.025   5.104  1.00 21.49     0.047 C 
BRANCH  27  28
HETATM   28  C13 MK1 B 902      11.983  24.716   5.366  1.00 26.89     0.084 C 
BRANCH  28  29
HETATM   29  C21 MK1 B 902      11.270  24.219   4.114  1.00 29.35     0.222 C 
HETATM   30  N4  MK1 B 902       9.962  24.458   4.070  1.00 31.19    -0.350 N 
HETATM   31  H4  MK1 B 902       9.475  24.723   4.926  1.00  0.00     0.163 HD
HETATM   32  O3  MK1 B 902      11.915  23.735   3.172  1.00 32.66    -0.273 OA
BRANCH  30  33
HETATM   33  C22 MK1 B 902       9.211  24.352   2.831  1.00 29.22     0.147 C 
HETATM   34  C30 MK1 B 902       7.692  24.045   2.913  1.00 31.86    -0.027 A 
HETATM   35  C29 MK1 B 902       6.944  23.255   3.726  1.00 27.70     0.010 A 
HETATM   36  C25 MK1 B 902       6.904  24.827   1.824  1.00 31.29    -0.047 A 
HETATM   37  C28 MK1 B 902       5.566  23.162   3.587  1.00 29.01     0.001 A 
HETATM   38  C27 MK1 B 902       4.864  23.883   2.609  1.00 28.00     0.001 A 
HETATM   39  C26 MK1 B 902       5.537  24.724   1.716  1.00 32.00     0.008 A 
HETATM   40  C24 MK1 B 902       8.015  25.593   1.149  1.00 32.05     0.073 C 
HETATM   41  C23 MK1 B 902       9.240  25.645   2.034  1.00 28.82     0.149 C 
BRANCH  41  42
HETATM   42  O4  MK1 B 902       9.271  26.762   2.910  1.00 28.32    -0.393 OA
HETATM   43  H4  MK1 B 902       8.391  26.983   3.192  1.00  0.00     0.210 HD
ENDBRANCH  41  42
ENDBRANCH  30  33
ENDBRANCH  28  29
BRANCH  28  44
HETATM   44  C14 MK1 B 902      11.223  25.933   5.922  1.00 28.67     0.052 C 
BRANCH  44  45
HETATM   45  C15 MK1 B 902      10.806  25.746   7.334  1.00 26.89    -0.057 A 
HETATM   46  C16 MK1 B 902       9.520  25.337   7.692  1.00 29.22     0.007 A 
HETATM   47  C17 MK1 B 902       9.164  25.211   9.026  1.00 29.22     0.001 A 
HETATM   48  C18 MK1 B 902      10.115  25.503  10.007  1.00 30.97     0.000 A 
HETATM   49  C19 MK1 B 902      11.408  25.906   9.653  1.00 29.25     0.001 A 
HETATM   50  C20 MK1 B 902      11.751  26.027   8.306  1.00 29.96     0.007 A 
ENDBRANCH  44  45
ENDBRANCH  28  44
ENDBRANCH  27  28
ENDBRANCH  24  27
ENDBRANCH  23  24
ENDBRANCH   4  23
TORSDOF 14
ENDMDL
MODEL 2
REMARK VINA RESULT:     -10.2      2.544      4.497
REMARK  14 active torsions:
REMARK  status: ('A' for Active; 'I' for Inactive)
REMARK    1  A    between atoms: N1_1  and  C31_43 
REMARK    2  A    between atoms: C2_3  and  C3_4 
REMARK       I    between atoms: C3_4  and  N2_6 
REMARK    3  A    between atoms: N2_6  and  C4_8 
REMARK    4  A    between atoms: N3_12  and  C10_15 
REMARK    5  A    between atoms: C10_15  and  C11_16 
REMARK    6  A    between atoms: C11_16  and  O2_17 
REMARK    7  A    between atoms: C11_16  and  C12_19 
REMARK    8  A    between atoms: C12_19  and  C13_20 
REMARK    9  A    between atoms: C13_20  and  C21_28 
REMARK   10  A    between atoms: C13_20  and  C14_21 
REMARK   11  A    between atoms: C14_21  and  C15_22 
REMARK       I    between atoms: C21_28  and  N4_30 
REMARK   12  A    between atoms: N4_30  and  C22_32 
REMARK   13  A    between atoms: C23_33  and  O4_34 
REMARK   14  A    between atoms: C31_43  and  C32_44 
ROOT
HETATM    1  N1  MK1 B 902      17.894  19.172   9.843  1.00 28.25     0.096 N 
HETATM    2  C1  MK1 B 902      17.956  18.945   8.374  1.00 30.30     0.307 C 
HETATM    3  C2  MK1 B 902      17.824  20.093   7.393  1.00 27.27     0.200 C 
HETATM    4  N3  MK1 B 902      16.478  20.656   7.762  1.00 28.91    -0.395 N 
HETATM    5  C8  MK1 B 902      16.112  20.760   9.196  1.00 26.24     0.148 C 
HETATM    6  C9  MK1 B 902      16.631  19.687  10.131  1.00 27.47     0.292 C 
ENDROOT
BRANCH   1   7
HETATM    7  C31 MK1 B 902      18.321  18.068  10.712  1.00 36.25     0.312 C 
BRANCH   7   8
HETATM    8  C32 MK1 B 902      19.394  18.269  11.789  1.00 42.75    -0.015 A 
HETATM    9  C36 MK1 B 902      19.377  19.452  12.496  1.00 44.71     0.011 A 
HETATM   10  C35 MK1 B 902      20.361  19.648  13.462  1.00 49.34     0.018 A 
HETATM   11  C34 MK1 B 902      21.325  18.661  13.685  1.00 50.60     0.087 A 
HETATM   12  N5  MK1 B 902      21.413  17.441  13.016  1.00 51.38    -0.375 N 
HETATM   13  C33 MK1 B 902      20.389  17.320  12.063  1.00 47.41     0.096 A 
HETATM   14  H5  MK1 B 902      22.126  16.733  13.195  1.00  0.00     0.164 HD
ENDBRANCH   7   8
ENDBRANCH   1   7
BRANCH   3  15
HETATM   15  C3  MK1 B 902      17.866  19.531   5.998  1.00 28.85     0.242 C 
HETATM   16  O1  MK1 B 902      18.786  19.820   5.243  1.00 29.59    -0.271 OA
HETATM   17  N2  MK1 B 902      16.873  18.742   5.641  1.00 22.29    -0.351 N 
HETATM   18  H2  MK1 B 902      16.137  18.636   6.339  1.00  0.00     0.163 HD
BRANCH  17  19
HETATM   19  C4  MK1 B 902      16.662  18.010   4.433  1.00 23.47     0.022 C 
HETATM   20  C7  MK1 B 902      16.617  18.856   3.236  1.00 22.75     0.037 C 
HETATM   21  C5  MK1 B 902      15.254  17.391   4.522  1.00 27.66     0.037 C 
HETATM   22  C6  MK1 B 902      17.610  17.023   4.216  1.00 21.71     0.037 C 
ENDBRANCH  17  19
ENDBRANCH   3  15
BRANCH   4  23
HETATM   23  C10 MK1 B 902      16.042  21.855   7.074  1.00 20.86     0.149 C 
BRANCH  23  24
HETATM   24  C11 MK1 B 902      15.460  22.928   7.994  1.00 21.68     0.136 C 
BRANCH  24  25
HETATM   25  O2  MK1 B 902      16.353  23.927   7.604  1.00 15.87    -0.394 OA
HETATM   26  H2  MK1 B 902      15.999  24.764   7.882  1.00  0.00     0.210 HD
ENDBRANCH  24  25
BRANCH  24  27
HETATM   27  C12 MK1 B 902      14.032  23.492   7.871  1.00 21.49     0.047 C 
BRANCH  27  28
HETATM   28  C13 MK1 B 902      13.385  23.686   6.492  1.00 26.89     0.084 C 
BRANCH  28  29
HETATM   29  C21 MK1 B 902      12.613  24.996   6.400  1.00 29.35     0.222 C 
HETATM   30  N4  MK1 B 902      11.683  25.176   7.335  1.00 31.19    -0.350 N 
HETATM   31  H4  MK1 B 902      11.372  24.377   7.889  1.00  0.00     0.163 HD
HETATM   32  O3  MK1 B 902      12.932  25.861   5.571  1.00 32.66    -0.273 OA
BRANCH  30  33
HETATM   33  C22 MK1 B 902      11.100  26.482   7.587  1.00 29.22     0.147 C 
HETATM   34  C30 MK1 B 902       9.800  26.868   6.833  1.00 31.86    -0.027 A 
HETATM   35  C29 MK1 B 902       9.350  26.634   5.572  1.00 27.70     0.010 A 
HETATM   36  C25 MK1 B 902       8.846  27.688   7.747  1.00 31.29    -0.047 A 
HETATM   37  C28 MK1 B 902       8.115  27.098   5.141  1.00 29.01     0.001 A 
HETATM   38  C27 MK1 B 902       7.256  27.826   5.979  1.00 28.00     0.001 A 
HETATM   39  C26 MK1 B 902       7.623  28.126   7.296  1.00 32.00     0.008 A 
HETATM   40  C24 MK1 B 902       9.633  27.729   9.033  1.00 32.05     0.073 C 
HETATM   41  C23 MK1 B 902      10.696  26.655   9.042  1.00 28.82     0.149 C 
BRANCH  41  42
HETATM   42  O4  MK1 B 902      10.260  25.416   9.581  1.00 28.32    -0.393 OA
HETATM   43  H4  MK1 B 902      10.948  25.025  10.107  1.00  0.00     0.210 HD
ENDBRANCH  41  42
ENDBRANCH  30  33
ENDBRANCH  28  29
BRANCH  28  44
HETATM   44  C14 MK1 B 902      12.445  22.526   6.121  1.00 28.67     0.052 C 
BRANCH  44  45
HETATM   45  C15 MK1 B 902      11.703  22.777   4.859  1.00 26.89    -0.057 A 
HETATM   46  C16 MK1 B 902      12.344  22.935   3.629  1.00 29.22     0.007 A 
HETATM   47  C17 MK1 B 902      11.614  23.205   2.481  1.00 29.22     0.001 A 
HETATM   48  C18 MK1 B 902      10.225  23.318   2.579  1.00 30.97     0.000 A 
HETATM   49  C19 MK1 B 902       9.578  23.153   3.809  1.00 29.25     0.001 A 
HETATM   50  C20 MK1 B 902      10.326  22.881   4.954  1.00 29.96     0.007 A 
ENDBRANCH  44  45
ENDBRANCH  28  44
ENDBRANCH  27  28
ENDBRANCH  24  27
ENDBRANCH  23  24
ENDBRANCH   4  23
TORSDOF 14
ENDMDL
MODEL 3
REMARK VINA RESULT:     -10.2      1.591      2.281
REMARK  14 active torsions:
REMARK  status: ('A' for Active; 'I' for Inactive)
REMARK    1  A    between atoms: N1_1  and  C31_43 
REMARK    2  A    between atoms: C2_3  and  C3_4 
REMARK       I    between atoms: C3_4  and  N2_6 
REMARK    3  A    between atoms: N2_6  and  C4_8 
REMARK    4  A    between atoms: N3_12  and  C10_15 
REMARK    5  A    between atoms: C10_15  and  C11_16 
REMARK    6  A    between atoms: C11_16  and  O2_17 
REMARK    7  A    between atoms: C11_16  and  C12_19 
REMARK    8  A    between atoms: C12_19  and  C13_20 
REMARK    9  A    between atoms: C13_20  and  C21_28 
REMARK   10  A    between atoms: C13_20  and  C14_21 
REMARK   11  A    between atoms: C14_21  and  C15_22 
REMARK       I    between atoms: C21_28  and  N4_30 
REMARK   12  A    between atoms: N4_30  and  C22_32 
REMARK   13  A    between atoms: C23_33  and  O4_34 
REMARK   14  A    between atoms: C31_43  and  C32_44 
ROOT
HETATM    1  N1  MK1 B 902      15.781  22.226   7.497  1.00 28.25     0.096 N 
HETATM    2  C1  MK1 B 902      15.760  21.447   6.230  1.00 30.30     0.307 C 
HETATM    3  C2  MK1 B 902      14.828  21.815   5.093  1.00 27.27     0.200 C 
HETATM    4  N3  MK1 B 902      13.483  21.729   5.762  1.00 28.91    -0.395 N 
HETATM    5  C8  MK1 B 902      13.333  22.251   7.143  1.00 26.24     0.148 C 
HETATM    6  C9  MK1 B 902      14.518  22.110   8.077  1.00 27.47     0.292 C 
ENDROOT
BRANCH   1   7
HETATM    7  C31 MK1 B 902      16.903  21.988   8.414  1.00 36.25     0.312 C 
BRANCH   7   8
HETATM    8  C32 MK1 B 902      17.274  20.573   8.871  1.00 42.75    -0.015 A 
HETATM    9  C36 MK1 B 902      16.771  20.137  10.078  1.00 44.71     0.011 A 
HETATM   10  C35 MK1 B 902      17.121  18.860  10.507  1.00 49.34     0.018 A 
HETATM   11  C34 MK1 B 902      17.962  18.066   9.721  1.00 50.60     0.087 A 
HETATM   12  N5  MK1 B 902      18.512  18.429   8.493  1.00 51.38    -0.375 N 
HETATM   13  C33 MK1 B 902      18.112  19.726   8.131  1.00 47.41     0.096 A 
HETATM   14  H5  MK1 B 902      19.123  17.834   7.934  1.00  0.00     0.164 HD
ENDBRANCH   7   8
ENDBRANCH   1   7
BRANCH   3  15
HETATM   15  C3  MK1 B 902      15.004  20.807   3.990  1.00 28.85     0.242 C 
HETATM   16  O1  MK1 B 902      14.653  21.073   2.847  1.00 29.59    -0.271 OA
HETATM   17  N2  MK1 B 902      15.531  19.645   4.321  1.00 22.29    -0.351 N 
HETATM   18  H2  MK1 B 902      15.717  19.526   5.317  1.00  0.00     0.163 HD
BRANCH  17  19
HETATM   19  C4  MK1 B 902      15.885  18.525   3.508  1.00 23.47     0.022 C 
HETATM   20  C7  MK1 B 902      14.822  18.111   2.587  1.00 22.75     0.037 C 
HETATM   21  C5  MK1 B 902      16.068  17.324   4.453  1.00 27.66     0.037 C 
HETATM   22  C6  MK1 B 902      17.034  18.731   2.760  1.00 21.71     0.037 C 
ENDBRANCH  17  19
ENDBRANCH   3  15
BRANCH   4  23
HETATM   23  C10 MK1 B 902      12.322  22.113   4.983  1.00 20.86     0.149 C 
BRANCH  23  24
HETATM   24  C11 MK1 B 902      12.444  23.480   4.308  1.00 21.68     0.136 C 
BRANCH  24  25
HETATM   25  O2  MK1 B 902      12.468  22.976   3.006  1.00 15.87    -0.394 OA
HETATM   26  H2  MK1 B 902      11.570  22.892   2.707  1.00  0.00     0.210 HD
ENDBRANCH  24  25
BRANCH  24  27
HETATM   27  C12 MK1 B 902      11.365  24.576   4.374  1.00 21.49     0.047 C 
BRANCH  27  28
HETATM   28  C13 MK1 B 902      10.005  24.296   5.030  1.00 26.89     0.084 C 
BRANCH  28  29
HETATM   29  C21 MK1 B 902       9.056  23.562   4.089  1.00 29.35     0.222 C 
HETATM   30  N4  MK1 B 902       7.875  24.145   3.903  1.00 31.19    -0.350 N 
HETATM   31  H4  MK1 B 902       7.574  24.878   4.546  1.00  0.00     0.163 HD
HETATM   32  O3  MK1 B 902       9.434  22.557   3.469  1.00 32.66    -0.273 OA
BRANCH  30  33
HETATM   33  C22 MK1 B 902       7.002  23.763   2.807  1.00 29.22     0.147 C 
HETATM   34  C30 MK1 B 902       5.508  23.484   3.116  1.00 31.86    -0.027 A 
HETATM   35  C29 MK1 B 902       4.866  22.897   4.160  1.00 27.70     0.010 A 
HETATM   36  C25 MK1 B 902       4.593  24.001   1.969  1.00 31.29    -0.047 A 
HETATM   37  C28 MK1 B 902       3.483  22.776   4.191  1.00 29.01     0.001 A 
HETATM   38  C27 MK1 B 902       2.668  23.258   3.157  1.00 28.00     0.001 A 
HETATM   39  C26 MK1 B 902       3.225  23.877   2.032  1.00 32.00     0.008 A 
HETATM   40  C24 MK1 B 902       5.610  24.596   1.027  1.00 32.05     0.073 C 
HETATM   41  C23 MK1 B 902       6.918  24.844   1.742  1.00 28.82     0.149 C 
BRANCH  41  42
HETATM   42  O4  MK1 B 902       7.013  26.130   2.338  1.00 28.32    -0.393 OA
HETATM   43  H4  MK1 B 902       7.334  26.762   1.706  1.00  0.00     0.210 HD
ENDBRANCH  41  42
ENDBRANCH  30  33
ENDBRANCH  28  29
BRANCH  28  44
HETATM   44  C14 MK1 B 902       9.320  25.582   5.524  1.00 28.67     0.052 C 
BRANCH  44  45
HETATM   45  C15 MK1 B 902       9.791  25.993   6.871  1.00 26.89    -0.057 A 
HETATM   46  C16 MK1 B 902      10.365  25.097   7.774  1.00 29.22     0.007 A 
HETATM   47  C17 MK1 B 902      10.757  25.518   9.036  1.00 29.22     0.001 A 
HETATM   48  C18 MK1 B 902      10.564  26.855   9.388  1.00 30.97     0.000 A 
HETATM   49  C19 MK1 B 902       9.995  27.760   8.483  1.00 29.25     0.001 A 
HETATM   50  C20 MK1 B 902       9.607  27.321   7.217  1.00 29.96     0.007 A 
ENDBRANCH  44  45
ENDBRANCH  28  44
ENDBRANCH  27  28
ENDBRANCH  24  27
ENDBRANCH  23  24
ENDBRANCH   4  23
TORSDOF 14
ENDMDL
MODEL 4
REMARK VINA RESULT:      -9.7      3.830      8.534
REMARK  14 active torsions:
REMARK  status: ('A' for Active; 'I' for Inactive)
REMARK    1  A    between atoms: N1_1  and  C31_43 
REMARK    2  A    between atoms: C2_3  and  C3_4 
REMARK       I    between atoms: C3_4  and  N2_6 
REMARK    3  A    between atoms: N2_6  and  C4_8 
REMARK    4  A    between atoms: N3_12  and  C10_15 
REMARK    5  A    between atoms: C10_15  and  C11_16 
REMARK    6  A    between atoms: C11_16  and  O2_17 
REMARK    7  A    between atoms: C11_16  and  C12_19 
REMARK    8  A    between atoms: C12_19  and  C13_20 
REMARK    9  A    between atoms: C13_20  and  C21_28 
REMARK   10  A    between atoms: C13_20  and  C14_21 
REMARK   11  A    between atoms: C14_21  and  C15_22 
REMARK       I    between atoms: C21_28  and  N4_30 
REMARK   12  A    between atoms: N4_30  and  C22_32 
REMARK   13  A    between atoms: C23_33  and  O4_34 
REMARK   14  A    between atoms: C31_43  and  C32_44 
ROOT
HETATM    1  N1  MK1 B 902      11.674  22.958   3.725  1.00 28.25     0.096 N 
HETATM    2  C1  MK1 B 902      11.285  23.958   4.755  1.00 30.30     0.307 C 
HETATM    3  C2  MK1 B 902       9.854  24.440   4.885  1.00 27.27     0.200 C 
HETATM    4  N3  MK1 B 902       9.594  25.000   3.513  1.00 28.91    -0.395 N 
HETATM    5  C8  MK1 B 902      10.105  24.265   2.329  1.00 26.24     0.148 C 
HETATM    6  C9  MK1 B 902      11.420  23.526   2.477  1.00 27.47     0.292 C 
ENDROOT
BRANCH   1   7
HETATM    7  C31 MK1 B 902      12.996  22.335   3.858  1.00 36.25     0.312 C 
BRANCH   7   8
HETATM    8  C32 MK1 B 902      13.847  22.528   5.119  1.00 42.75    -0.015 A 
HETATM    9  C36 MK1 B 902      13.548  21.751   6.218  1.00 44.71     0.011 A 
HETATM   10  C35 MK1 B 902      14.304  21.936   7.373  1.00 49.34     0.018 A 
HETATM   11  C34 MK1 B 902      15.326  22.891   7.391  1.00 50.60     0.087 A 
HETATM   12  N5  MK1 B 902      15.691  23.715   6.328  1.00 51.38    -0.375 N 
HETATM   13  C33 MK1 B 902      14.885  23.467   5.205  1.00 47.41     0.096 A 
HETATM   14  H5  MK1 B 902      16.442  24.405   6.361  1.00  0.00     0.164 HD
ENDBRANCH   7   8
ENDBRANCH   1   7
BRANCH   3  15
HETATM   15  C3  MK1 B 902       9.802  25.483   5.968  1.00 28.85     0.242 C 
HETATM   16  O1  MK1 B 902      10.134  26.638   5.731  1.00 29.59    -0.271 OA
HETATM   17  N2  MK1 B 902       9.402  25.088   7.161  1.00 22.29    -0.351 N 
HETATM   18  H2  MK1 B 902       9.220  24.088   7.242  1.00  0.00     0.163 HD
BRANCH  17  19
HETATM   19  C4  MK1 B 902       9.182  25.837   8.357  1.00 23.47     0.022 C 
HETATM   20  C7  MK1 B 902      10.376  26.543   8.834  1.00 22.75     0.037 C 
HETATM   21  C5  MK1 B 902       8.863  24.822   9.470  1.00 27.66     0.037 C 
HETATM   22  C6  MK1 B 902       8.160  26.766   8.244  1.00 21.71     0.037 C 
ENDBRANCH  17  19
ENDBRANCH   3  15
BRANCH   4  23
HETATM   23  C10 MK1 B 902       8.259  25.485   3.229  1.00 20.86     0.149 C 
BRANCH  23  24
HETATM   24  C11 MK1 B 902       7.142  24.540   3.673  1.00 21.68     0.136 C 
BRANCH  24  25
HETATM   25  O2  MK1 B 902       6.629  25.398   4.648  1.00 15.87    -0.394 OA
HETATM   26  H2  MK1 B 902       7.359  25.735   5.155  1.00  0.00     0.210 HD
ENDBRANCH  24  25
BRANCH  24  27
HETATM   27  C12 MK1 B 902       5.976  24.095   2.771  1.00 21.49     0.047 C 
BRANCH  27  28
HETATM   28  C13 MK1 B 902       4.524  24.214   3.255  1.00 26.89     0.084 C 
BRANCH  28  29
HETATM   29  C21 MK1 B 902       4.153  25.650   3.606  1.00 29.35     0.222 C 
HETATM   30  N4  MK1 B 902       3.622  25.822   4.814  1.00 31.19    -0.350 N 
HETATM   31  H4  MK1 B 902       3.276  25.010   5.326  1.00  0.00     0.163 HD
HETATM   32  O3  MK1 B 902       4.446  26.582   2.843  1.00 32.66    -0.273 OA
BRANCH  30  33
HETATM   33  C22 MK1 B 902       3.523  27.138   5.421  1.00 29.22     0.147 C 
HETATM   34  C30 MK1 B 902       2.279  27.458   6.291  1.00 31.86    -0.027 A 
HETATM   35  C29 MK1 B 902       0.964  27.131   6.191  1.00 27.70     0.010 A 
HETATM   36  C25 MK1 B 902       2.664  28.332   7.518  1.00 31.29    -0.047 A 
HETATM   37  C28 MK1 B 902       0.034  27.553   7.132  1.00 29.01     0.001 A 
HETATM   38  C27 MK1 B 902       0.395  28.330   8.243  1.00 28.00     0.001 A 
HETATM   39  C26 MK1 B 902       1.723  28.726   8.440  1.00 32.00     0.008 A 
HETATM   40  C24 MK1 B 902       4.154  28.471   7.325  1.00 32.05     0.073 C 
HETATM   41  C23 MK1 B 902       4.670  27.410   6.381  1.00 28.82     0.149 C 
BRANCH  41  42
HETATM   42  O4  MK1 B 902       5.067  26.209   7.026  1.00 28.32    -0.393 OA
HETATM   43  H4  MK1 B 902       4.609  26.113   7.854  1.00  0.00     0.210 HD
ENDBRANCH  41  42
ENDBRANCH  30  33
ENDBRANCH  28  29
BRANCH  28  44
HETATM   44  C14 MK1 B 902       4.239  23.314   4.470  1.00 28.67     0.052 C 
BRANCH  44  45
HETATM   45  C15 MK1 B 902       3.700  21.987   4.080  1.00 26.89    -0.057 A 
HETATM   46  C16 MK1 B 902       4.050  20.809   4.742  1.00 29.22     0.007 A 
HETATM   47  C17 MK1 B 902       3.551  19.585   4.320  1.00 29.22     0.001 A 
HETATM   48  C18 MK1 B 902       2.693  19.553   3.219  1.00 30.97     0.000 A 
HETATM   49  C19 MK1 B 902       2.333  20.733   2.556  1.00 29.25     0.001 A 
HETATM   50  C20 MK1 B 902       2.843  21.956   2.993  1.00 29.96     0.007 A 
ENDBRANCH  44  45
ENDBRANCH  28  44
ENDBRANCH  27  28
ENDBRANCH  24  27
ENDBRANCH  23  24
ENDBRANCH   4  23
TORSDOF 14
ENDMDL
MODEL 5
REMARK VINA RESULT:      -9.2      2.430      4.144
REMARK  14 active torsions:
REMARK  status: ('A' for Active; 'I' for Inactive)
REMARK    1  A    between atoms: N1_1  and  C31_43 
REMARK    2  A    between atoms: C2_3  and  C3_4 
REMARK       I    between atoms: C3_4  and  N2_6 
REMARK    3  A    between atoms: N2_6  and  C4_8 
REMARK    4  A    between atoms: N3_12  and  C10_15 
REMARK    5  A    between atoms: C10_15  and  C11_16 
REMARK    6  A    between atoms: C11_16  and  O2_17 
REMARK    7  A    between atoms: C11_16  and  C12_19 
REMARK    8  A    between atoms: C12_19  and  C13_20 
REMARK    9  A    between atoms: C13_20  and  C21_28 
REMARK   10  A    between atoms: C13_20  and  C14_21 
REMARK   11  A    between atoms: C14_21  and  C15_22 
REMARK       I    between atoms: C21_28  and  N4_30 
REMARK   12  A    between atoms: N4_30  and  C22_32 
REMARK   13  A    between atoms: C23_33  and  O4_34 
REMARK   14  A    between atoms: C31_43  and  C32_44 
ROOT
HETATM    1  N1  MK1 B 902      17.408  20.387   9.233  1.00 28.25     0.096 N 
HETATM    2  C1  MK1 B 902      17.201  19.920   7.836  1.00 30.30     0.307 C 
HETATM    3  C2  MK1 B 902      16.594  20.827   6.783  1.00 27.27     0.200 C 
HETATM    4  N3  MK1 B 902      15.267  21.170   7.404  1.00 28.91    -0.395 N 
HETATM    5  C8  MK1 B 902      15.208  21.453   8.860  1.00 26.24     0.148 C 
HETATM    6  C9  MK1 B 902      16.153  20.686   9.762  1.00 27.47     0.292 C 
ENDROOT
BRANCH   1   7
HETATM    7  C31 MK1 B 902      18.259  19.561  10.098  1.00 36.25     0.312 C 
BRANCH   7   8
HETATM    8  C32 MK1 B 902      18.049  18.047  10.214  1.00 42.75    -0.015 A 
HETATM    9  C36 MK1 B 902      17.218  17.591  11.215  1.00 44.71     0.011 A 
HETATM   10  C35 MK1 B 902      17.038  16.216  11.338  1.00 49.34     0.018 A 
HETATM   11  C34 MK1 B 902      17.696  15.346  10.462  1.00 50.60     0.087 A 
HETATM   12  N5  MK1 B 902      18.550  15.723   9.427  1.00 51.38    -0.375 N 
HETATM   13  C33 MK1 B 902      18.677  17.120   9.369  1.00 47.41     0.096 A 
HETATM   14  H5  MK1 B 902      19.020  15.072   8.798  1.00  0.00     0.164 HD
ENDBRANCH   7   8
ENDBRANCH   1   7
BRANCH   3  15
HETATM   15  C3  MK1 B 902      16.462  20.047   5.504  1.00 28.85     0.242 C 
HETATM   16  O1  MK1 B 902      15.993  20.574   4.503  1.00 29.59    -0.271 OA
HETATM   17  N2  MK1 B 902      16.858  18.789   5.527  1.00 22.29    -0.351 N 
HETATM   18  H2  MK1 B 902      17.165  18.453   6.440  1.00  0.00     0.163 HD
BRANCH  17  19
HETATM   19  C4  MK1 B 902      16.925  17.821   4.479  1.00 23.47     0.022 C 
HETATM   20  C7  MK1 B 902      17.538  16.554   4.890  1.00 22.75     0.037 C 
HETATM   21  C5  MK1 B 902      17.879  18.384   3.409  1.00 27.66     0.037 C 
HETATM   22  C6  MK1 B 902      15.691  17.531   3.920  1.00 21.71     0.037 C 
ENDBRANCH  17  19
ENDBRANCH   3  15
BRANCH   4  23
HETATM   23  C10 MK1 B 902      14.424  22.118   6.703  1.00 20.86     0.149 C 
BRANCH  23  24
HETATM   24  C11 MK1 B 902      14.347  23.495   7.364  1.00 21.68     0.136 C 
BRANCH  24  25
HETATM   25  O2  MK1 B 902      14.889  24.187   6.279  1.00 15.87    -0.394 OA
HETATM   26  H2  MK1 B 902      14.267  24.143   5.563  1.00  0.00     0.210 HD
ENDBRANCH  24  25
BRANCH  24  27
HETATM   27  C12 MK1 B 902      13.032  24.190   7.763  1.00 21.49     0.047 C 
BRANCH  27  28
HETATM   28  C13 MK1 B 902      11.938  24.452   6.717  1.00 26.89     0.084 C 
BRANCH  28  29
HETATM   29  C21 MK1 B 902      10.769  25.240   7.295  1.00 29.35     0.222 C 
HETATM   30  N4  MK1 B 902      11.036  26.505   7.611  1.00 31.19    -0.350 N 
HETATM   31  H4  MK1 B 902      12.007  26.806   7.684  1.00  0.00     0.163 HD
HETATM   32  O3  MK1 B 902       9.635  24.742   7.345  1.00 32.66    -0.273 OA
BRANCH  30  33
HETATM   33  C22 MK1 B 902       9.975  27.468   7.856  1.00 29.22     0.147 C 
HETATM   34  C30 MK1 B 902       8.706  27.410   6.965  1.00 31.86    -0.027 A 
HETATM   35  C29 MK1 B 902       8.505  27.148   5.646  1.00 27.70     0.010 A 
HETATM   36  C25 MK1 B 902       7.427  27.721   7.792  1.00 31.29    -0.047 A 
HETATM   37  C28 MK1 B 902       7.234  27.156   5.087  1.00 29.01     0.001 A 
HETATM   38  C27 MK1 B 902       6.086  27.424   5.847  1.00 28.00     0.001 A 
HETATM   39  C26 MK1 B 902       6.179  27.710   7.213  1.00 32.00     0.008 A 
HETATM   40  C24 MK1 B 902       8.009  27.928   9.168  1.00 32.05     0.073 C 
HETATM   41  C23 MK1 B 902       9.397  27.335   9.254  1.00 28.82     0.149 C 
BRANCH  41  42
HETATM   42  O4  MK1 B 902       9.418  25.977   9.668  1.00 28.32    -0.393 OA
HETATM   43  H4  MK1 B 902       8.918  25.869  10.470  1.00  0.00     0.210 HD
ENDBRANCH  41  42
ENDBRANCH  30  33
ENDBRANCH  28  29
BRANCH  28  44
HETATM   44  C14 MK1 B 902      11.402  23.150   6.096  1.00 28.67     0.052 C 
BRANCH  44  45
HETATM   45  C15 MK1 B 902      11.066  23.303   4.658  1.00 26.89    -0.057 A 
HETATM   46  C16 MK1 B 902      10.279  22.380   3.967  1.00 29.22     0.007 A 
HETATM   47  C17 MK1 B 902      10.020  22.544   2.615  1.00 29.22     0.001 A 
HETATM   48  C18 MK1 B 902      10.563  23.649   1.955  1.00 30.97     0.000 A 
HETATM   49  C19 MK1 B 902      11.346  24.582   2.646  1.00 29.25     0.001 A 
HETATM   50  C20 MK1 B 902      11.597  24.403   4.006  1.00 29.96     0.007 A 
ENDBRANCH  44  45
ENDBRANCH  28  44
ENDBRANCH  27  28
ENDBRANCH  24  27
ENDBRANCH  23  24
ENDBRANCH   4  23
TORSDOF 14
ENDMDL
MODEL 6
REMARK VINA RESULT:      -9.1      5.314      9.762
REMARK  14 active torsions:
REMARK  status: ('A' for Active; 'I' for Inactive)
REMARK    1  A    between atoms: N1_1  and  C31_43 
REMARK    2  A    between atoms: C2_3  and  C3_4 
REMARK       I    between atoms: C3_4  and  N2_6 
REMARK    3  A    between atoms: N2_6  and  C4_8 
REMARK    4  A    between atoms: N3_12  and  C10_15 
REMARK    5  A    between atoms: C10_15  and  C11_16 
REMARK    6  A    between atoms: C11_16  and  O2_17 
REMARK    7  A    between atoms: C11_16  and  C12_19 
REMARK    8  A    between atoms: C12_19  and  C13_20 
REMARK    9  A    between atoms: C13_20  and  C21_28 
REMARK   10  A    between atoms: C13_20  and  C14_21 
REMARK   11  A    between atoms: C14_21  and  C15_22 
REMARK       I    between atoms: C21_28  and  N4_30 
REMARK   12  A    between atoms: N4_30  and  C22_32 
REMARK   13  A    between atoms: C23_33  and  O4_34 
REMARK   14  A    between atoms: C31_43  and  C32_44 
ROOT
HETATM    1  N1  MK1 B 902      10.548  26.214   7.679  1.00 28.25     0.096 N 
HETATM    2  C1  MK1 B 902       9.858  26.063   6.370  1.00 30.30     0.307 C 
HETATM    3  C2  MK1 B 902       8.850  27.087   5.887  1.00 27.27     0.200 C 
HETATM    4  N3  MK1 B 902       7.836  27.064   6.999  1.00 28.91    -0.395 N 
HETATM    5  C8  MK1 B 902       8.311  26.983   8.403  1.00 26.24     0.148 C 
HETATM    6  C9  MK1 B 902       9.569  26.181   8.671  1.00 27.47     0.292 C 
ENDROOT
BRANCH   1   7
HETATM    7  C31 MK1 B 902      11.707  25.350   7.932  1.00 36.25     0.312 C 
BRANCH   7   8
HETATM    8  C32 MK1 B 902      12.541  24.776   6.780  1.00 42.75    -0.015 A 
HETATM    9  C36 MK1 B 902      12.708  23.408   6.730  1.00 44.71     0.011 A 
HETATM   10  C35 MK1 B 902      13.481  22.883   5.698  1.00 49.34     0.018 A 
HETATM   11  C34 MK1 B 902      14.061  23.738   4.757  1.00 50.60     0.087 A 
HETATM   12  N5  MK1 B 902      13.943  25.127   4.735  1.00 51.38    -0.375 N 
HETATM   13  C33 MK1 B 902      13.151  25.577   5.804  1.00 47.41     0.096 A 
HETATM   14  H5  MK1 B 902      14.374  25.734   4.038  1.00  0.00     0.164 HD
ENDBRANCH   7   8
ENDBRANCH   1   7
BRANCH   3  15
HETATM   15  C3  MK1 B 902       8.292  26.619   4.571  1.00 28.85     0.242 C 
HETATM   16  O1  MK1 B 902       8.062  27.422   3.676  1.00 29.59    -0.271 OA
HETATM   17  N2  MK1 B 902       8.057  25.327   4.446  1.00 22.29    -0.351 N 
HETATM   18  H2  MK1 B 902       8.228  24.777   5.288  1.00  0.00     0.163 HD
BRANCH  17  19
HETATM   19  C4  MK1 B 902       7.603  24.574   3.321  1.00 23.47     0.022 C 
HETATM   20  C7  MK1 B 902       7.464  23.140   3.593  1.00 22.75     0.037 C 
HETATM   21  C5  MK1 B 902       8.704  24.660   2.248  1.00 27.66     0.037 C 
HETATM   22  C6  MK1 B 902       6.396  25.025   2.810  1.00 21.71     0.037 C 
ENDBRANCH  17  19
ENDBRANCH   3  15
BRANCH   4  23
HETATM   23  C10 MK1 B 902       6.739  28.008   6.925  1.00 20.86     0.149 C 
BRANCH  23  24
HETATM   24  C11 MK1 B 902       5.385  27.370   6.610  1.00 21.68     0.136 C 
BRANCH  24  25
HETATM   25  O2  MK1 B 902       4.681  28.079   7.585  1.00 15.87    -0.394 OA
HETATM   26  H2  MK1 B 902       3.805  28.241   7.256  1.00  0.00     0.210 HD
ENDBRANCH  24  25
BRANCH  24  27
HETATM   27  C12 MK1 B 902       4.641  27.536   5.272  1.00 21.49     0.047 C 
BRANCH  27  28
HETATM   28  C13 MK1 B 902       3.457  26.626   4.917  1.00 26.89     0.084 C 
BRANCH  28  29
HETATM   29  C21 MK1 B 902       2.121  27.245   5.308  1.00 29.35     0.222 C 
HETATM   30  N4  MK1 B 902       1.773  27.092   6.583  1.00 31.19    -0.350 N 
HETATM   31  H4  MK1 B 902       2.260  26.400   7.152  1.00  0.00     0.163 HD
HETATM   32  O3  MK1 B 902       1.483  27.935   4.498  1.00 32.66    -0.273 OA
BRANCH  30  33
HETATM   33  C22 MK1 B 902       0.717  27.887   7.185  1.00 29.22     0.147 C 
HETATM   34  C30 MK1 B 902      -0.433  27.151   7.921  1.00 31.86    -0.027 A 
HETATM   35  C29 MK1 B 902      -1.101  25.992   7.682  1.00 27.70     0.010 A 
HETATM   36  C25 MK1 B 902      -0.881  27.936   9.187  1.00 31.29    -0.047 A 
HETATM   37  C28 MK1 B 902      -2.111  25.545   8.523  1.00 29.01     0.001 A 
HETATM   38  C27 MK1 B 902      -2.497  26.256   9.670  1.00 28.00     0.001 A 
HETATM   39  C26 MK1 B 902      -1.877  27.464  10.008  1.00 32.00     0.008 A 
HETATM   40  C24 MK1 B 902       0.063  29.113   9.151  1.00 32.05     0.073 C 
HETATM   41  C23 MK1 B 902       1.248  28.820   8.260  1.00 28.82     0.149 C 
BRANCH  41  42
HETATM   42  O4  MK1 B 902       2.342  28.218   8.936  1.00 28.32    -0.393 OA
HETATM   43  H4  MK1 B 902       2.977  28.879   9.188  1.00  0.00     0.210 HD
ENDBRANCH  41  42
ENDBRANCH  30  33
ENDBRANCH  28  29
BRANCH  28  44
HETATM   44  C14 MK1 B 902       3.573  25.238   5.571  1.00 28.67     0.052 C 
BRANCH  44  45
HETATM   45  C15 MK1 B 902       3.309  24.135   4.613  1.00 26.89    -0.057 A 
HETATM   46  C16 MK1 B 902       3.968  22.906   4.680  1.00 29.22     0.007 A 
HETATM   47  C17 MK1 B 902       3.716  21.916   3.741  1.00 29.22     0.001 A 
HETATM   48  C18 MK1 B 902       2.791  22.172   2.726  1.00 30.97     0.000 A 
HETATM   49  C19 MK1 B 902       2.122  23.400   2.660  1.00 29.25     0.001 A 
HETATM   50  C20 MK1 B 902       2.386  24.385   3.612  1.00 29.96     0.007 A 
ENDBRANCH  44  45
ENDBRANCH  28  44
ENDBRANCH  27  28
ENDBRANCH  24  27
ENDBRANCH  23  24
ENDBRANCH   4  23
TORSDOF 14
ENDMDL
MODEL 7
REMARK VINA RESULT:      -9.1      4.667      8.439
REMARK  14 active torsions:
REMARK  status: ('A' for Active; 'I' for Inactive)
REMARK    1  A    between atoms: N1_1  and  C31_43 
REMARK    2  A    between atoms: C2_3  and  C3_4 
REMARK       I    between atoms: C3_4  and  N2_6 
REMARK    3  A    between atoms: N2_6  and  C4_8 
REMARK    4  A    between atoms: N3_12  and  C10_15 
REMARK    5  A    between atoms: C10_15  and  C11_16 
REMARK    6  A    between atoms: C11_16  and  O2_17 
REMARK    7  A    between atoms: C11_16  and  C12_19 
REMARK    8  A    between atoms: C12_19  and  C13_20 
REMARK    9  A    between atoms: C13_20  and  C21_28 
REMARK   10  A    between atoms: C13_20  and  C14_21 
REMARK   11  A    between atoms: C14_21  and  C15_22 
REMARK       I    between atoms: C21_28  and  N4_30 
REMARK   12  A    between atoms: N4_30  and  C22_32 
REMARK   13  A    between atoms: C23_33  and  O4_34 
REMARK   14  A    between atoms: C31_43  and  C32_44 
ROOT
HETATM    1  N1  MK1 B 902      10.509  23.400   4.569  1.00 28.25     0.096 N 
HETATM    2  C1  MK1 B 902       9.138  23.244   4.013  1.00 30.30     0.307 C 
HETATM    3  C2  MK1 B 902       8.473  24.359   3.231  1.00 27.27     0.200 C 
HETATM    4  N3  MK1 B 902       8.488  25.484   4.231  1.00 28.91    -0.395 N 
HETATM    5  C8  MK1 B 902       9.696  25.681   5.070  1.00 26.24     0.148 C 
HETATM    6  C9  MK1 B 902      10.468  24.446   5.489  1.00 27.47     0.292 C 
ENDROOT
BRANCH   1   7
HETATM    7  C31 MK1 B 902      11.182  22.186   5.048  1.00 36.25     0.312 C 
BRANCH   7   8
HETATM    8  C32 MK1 B 902      12.700  22.012   4.921  1.00 42.75    -0.015 A 
HETATM    9  C36 MK1 B 902      13.402  21.671   6.057  1.00 44.71     0.011 A 
HETATM   10  C35 MK1 B 902      14.783  21.531   5.953  1.00 49.34     0.018 A 
HETATM   11  C34 MK1 B 902      15.414  21.739   4.722  1.00 50.60     0.087 A 
HETATM   12  N5  MK1 B 902      14.781  22.085   3.530  1.00 51.38    -0.375 N 
HETATM   13  C33 MK1 B 902      13.394  22.206   3.718  1.00 47.41     0.096 A 
HETATM   14  H5  MK1 B 902      15.260  22.231   2.641  1.00  0.00     0.164 HD
ENDBRANCH   7   8
ENDBRANCH   1   7
BRANCH   3  15
HETATM   15  C3  MK1 B 902       7.082  23.916   2.863  1.00 28.85     0.242 C 
HETATM   16  O1  MK1 B 902       6.789  23.708   1.693  1.00 29.59    -0.271 OA
HETATM   17  N2  MK1 B 902       6.217  23.783   3.849  1.00 22.29    -0.351 N 
HETATM   18  H2  MK1 B 902       6.569  24.053   4.768  1.00  0.00     0.163 HD
BRANCH  17  19
HETATM   19  C4  MK1 B 902       4.865  23.322   3.837  1.00 23.47     0.022 C 
HETATM   20  C7  MK1 B 902       4.192  23.514   2.548  1.00 22.75     0.037 C 
HETATM   21  C5  MK1 B 902       4.079  24.208   4.820  1.00 27.66     0.037 C 
HETATM   22  C6  MK1 B 902       4.738  21.986   4.183  1.00 21.71     0.037 C 
ENDBRANCH  17  19
ENDBRANCH   3  15
BRANCH   4  23
HETATM   23  C10 MK1 B 902       7.999  26.776   3.793  1.00 20.86     0.149 C 
BRANCH  23  24
HETATM   24  C11 MK1 B 902       7.065  27.462   4.791  1.00 21.68     0.136 C 
BRANCH  24  25
HETATM   25  O2  MK1 B 902       6.249  26.347   4.987  1.00 15.87    -0.394 OA
HETATM   26  H2  MK1 B 902       5.668  26.273   4.239  1.00  0.00     0.210 HD
ENDBRANCH  24  25
BRANCH  24  27
HETATM   27  C12 MK1 B 902       7.506  27.979   6.173  1.00 21.49     0.047 C 
BRANCH  27  28
HETATM   28  C13 MK1 B 902       6.690  27.641   7.430  1.00 26.89     0.084 C 
BRANCH  28  29
HETATM   29  C21 MK1 B 902       5.340  28.346   7.443  1.00 29.35     0.222 C 
HETATM   30  N4  MK1 B 902       5.301  29.516   6.811  1.00 31.19    -0.350 N 
HETATM   31  H4  MK1 B 902       6.176  29.983   6.573  1.00  0.00     0.163 HD
HETATM   32  O3  MK1 B 902       4.340  27.787   7.919  1.00 32.66    -0.273 OA
BRANCH  30  33
HETATM   33  C22 MK1 B 902       4.042  30.145   6.451  1.00 29.22     0.147 C 
HETATM   34  C30 MK1 B 902       4.057  31.636   6.025  1.00 31.86    -0.027 A 
HETATM   35  C29 MK1 B 902       4.764  32.718   6.446  1.00 27.70     0.010 A 
HETATM   36  C25 MK1 B 902       3.042  31.901   4.877  1.00 31.29    -0.047 A 
HETATM   37  C28 MK1 B 902       4.585  33.972   5.877  1.00 29.01     0.001 A 
HETATM   38  C27 MK1 B 902       3.676  34.196   4.833  1.00 28.00     0.001 A 
HETATM   39  C26 MK1 B 902       2.894  33.152   4.325  1.00 32.00     0.008 A 
HETATM   40  C24 MK1 B 902       2.479  30.519   4.657  1.00 32.05     0.073 C 
HETATM   41  C23 MK1 B 902       3.390  29.472   5.255  1.00 28.82     0.149 C 
BRANCH  41  42
HETATM   42  O4  MK1 B 902       4.382  28.993   4.359  1.00 28.32    -0.393 OA
HETATM   43  H4  MK1 B 902       4.932  29.709   4.063  1.00  0.00     0.210 HD
ENDBRANCH  41  42
ENDBRANCH  30  33
ENDBRANCH  28  29
BRANCH  28  44
HETATM   44  C14 MK1 B 902       7.446  27.987   8.725  1.00 28.67     0.052 C 
BRANCH  44  45
HETATM   45  C15 MK1 B 902       8.704  27.214   8.873  1.00 26.89    -0.057 A 
HETATM   46  C16 MK1 B 902       9.962  27.820   8.886  1.00 29.22     0.007 A 
HETATM   47  C17 MK1 B 902      11.114  27.055   8.989  1.00 29.22     0.001 A 
HETATM   48  C18 MK1 B 902      10.993  25.666   9.078  1.00 30.97     0.000 A 
HETATM   49  C19 MK1 B 902       9.734  25.055   9.072  1.00 29.25     0.001 A 
HETATM   50  C20 MK1 B 902       8.584  25.839   8.969  1.00 29.96     0.007 A 
ENDBRANCH  44  45
ENDBRANCH  28  44
ENDBRANCH  27  28
ENDBRANCH  24  27
ENDBRANCH  23  24
ENDBRANCH   4  23
TORSDOF 14
ENDMDL
MODEL 8
REMARK VINA RESULT:      -8.8      4.544     12.314
REMARK  14 active torsions:
REMARK  status: ('A' for Active; 'I' for Inactive)
REMARK    1  A    between atoms: N1_1  and  C31_43 
REMARK    2  A    between atoms: C2_3  and  C3_4 
REMARK       I    between atoms: C3_4  and  N2_6 
REMARK    3  A    between atoms: N2_6  and  C4_8 
REMARK    4  A    between atoms: N3_12  and  C10_15 
REMARK    5  A    between atoms: C10_15  and  C11_16 
REMARK    6  A    between atoms: C11_16  and  O2_17 
REMARK    7  A    between atoms: C11_16  and  C12_19 
REMARK    8  A    between atoms: C12_19  and  C13_20 
REMARK    9  A    between atoms: C13_20  and  C21_28 
REMARK   10  A    between atoms: C13_20  and  C14_21 
REMARK   11  A    between atoms: C14_21  and  C15_22 
REMARK       I    between atoms: C21_28  and  N4_30 
REMARK   12  A    between atoms: N4_30  and  C22_32 
REMARK   13  A    between atoms: C23_33  and  O4_34 
REMARK   14  A    between atoms: C31_43  and  C32_44 
ROOT
HETATM    1  N1  MK1 B 902      15.698  20.008   3.569  1.00 28.25     0.096 N 
HETATM    2  C1  MK1 B 902      16.324  20.026   4.919  1.00 30.30     0.307 C 
HETATM    3  C2  MK1 B 902      17.757  19.579   5.129  1.00 27.27     0.200 C 
HETATM    4  N3  MK1 B 902      17.715  18.167   4.609  1.00 28.91    -0.395 N 
HETATM    5  C8  MK1 B 902      16.941  17.878   3.376  1.00 26.24     0.148 C 
HETATM    6  C9  MK1 B 902      15.679  18.682   3.138  1.00 27.47     0.292 C 
ENDROOT
BRANCH   1   7
HETATM    7  C31 MK1 B 902      14.427  20.724   3.409  1.00 36.25     0.312 C 
BRANCH   7   8
HETATM    8  C32 MK1 B 902      14.212  22.115   4.017  1.00 42.75    -0.015 A 
HETATM    9  C36 MK1 B 902      12.914  22.521   4.244  1.00 44.71     0.011 A 
HETATM   10  C35 MK1 B 902      12.712  23.791   4.777  1.00 49.34     0.018 A 
HETATM   11  C34 MK1 B 902      13.808  24.610   5.063  1.00 50.60     0.087 A 
HETATM   12  N5  MK1 B 902      15.148  24.278   4.865  1.00 51.38    -0.375 N 
HETATM   13  C33 MK1 B 902      15.267  22.986   4.326  1.00 47.41     0.096 A 
HETATM   14  H5  MK1 B 902      15.935  24.891   5.080  1.00  0.00     0.164 HD
ENDBRANCH   7   8
ENDBRANCH   1   7
BRANCH   3  15
HETATM   15  C3  MK1 B 902      18.068  19.657   6.599  1.00 28.85     0.242 C 
HETATM   16  O1  MK1 B 902      19.090  19.151   7.043  1.00 29.59    -0.271 OA
HETATM   17  N2  MK1 B 902      17.189  20.275   7.364  1.00 22.29    -0.351 N 
HETATM   18  H2  MK1 B 902      16.348  20.592   6.880  1.00  0.00     0.163 HD
BRANCH  17  19
HETATM   19  C4  MK1 B 902      17.225  20.571   8.760  1.00 23.47     0.022 C 
HETATM   20  C7  MK1 B 902      17.309  19.380   9.610  1.00 22.75     0.037 C 
HETATM   21  C5  MK1 B 902      15.871  21.209   9.119  1.00 27.66     0.037 C 
HETATM   22  C6  MK1 B 902      18.266  21.416   9.115  1.00 21.71     0.037 C 
ENDBRANCH  17  19
ENDBRANCH   3  15
BRANCH   4  23
HETATM   23  C10 MK1 B 902      18.963  17.431   4.567  1.00 20.86     0.149 C 
BRANCH  23  24
HETATM   24  C11 MK1 B 902      18.891  16.040   5.198  1.00 21.68     0.136 C 
BRANCH  24  25
HETATM   25  O2  MK1 B 902      19.662  15.416   4.215  1.00 15.87    -0.394 OA
HETATM   26  H2  MK1 B 902      19.105  14.802   3.751  1.00  0.00     0.210 HD
ENDBRANCH  24  25
BRANCH  24  27
HETATM   27  C12 MK1 B 902      19.489  15.681   6.571  1.00 21.49     0.047 C 
BRANCH  27  28
HETATM   28  C13 MK1 B 902      18.631  14.987   7.639  1.00 26.89     0.084 C 
BRANCH  28  29
HETATM   29  C21 MK1 B 902      18.703  15.702   8.984  1.00 29.35     0.222 C 
HETATM   30  N4  MK1 B 902      17.824  15.292   9.894  1.00 31.19    -0.350 N 
HETATM   31  H4  MK1 B 902      17.026  14.730   9.598  1.00  0.00     0.163 HD
HETATM   32  O3  MK1 B 902      19.605  16.520   9.216  1.00 32.66    -0.273 OA
BRANCH  30  33
HETATM   33  C22 MK1 B 902      17.972  15.627  11.300  1.00 29.22     0.147 C 
HETATM   34  C30 MK1 B 902      16.708  15.616  12.199  1.00 31.86    -0.027 A 
HETATM   35  C29 MK1 B 902      15.415  15.980  11.993  1.00 27.70     0.010 A 
HETATM   36  C25 MK1 B 902      17.034  15.067  13.617  1.00 31.29    -0.047 A 
HETATM   37  C28 MK1 B 902      14.456  15.860  12.989  1.00 29.01     0.001 A 
HETATM   38  C27 MK1 B 902      14.759  15.351  14.261  1.00 28.00     0.001 A 
HETATM   39  C26 MK1 B 902      16.061  14.950  14.581  1.00 32.00     0.008 A 
HETATM   40  C24 MK1 B 902      18.503  14.750  13.479  1.00 32.05     0.073 C 
HETATM   41  C23 MK1 B 902      18.894  14.658  12.022  1.00 28.82     0.149 C 
BRANCH  41  42
HETATM   42  O4  MK1 B 902      18.765  13.355  11.472  1.00 28.32    -0.393 OA
HETATM   43  H4  MK1 B 902      17.851  13.095  11.454  1.00  0.00     0.210 HD
ENDBRANCH  41  42
ENDBRANCH  30  33
ENDBRANCH  28  29
BRANCH  28  44
HETATM   44  C14 MK1 B 902      19.026  13.513   7.837  1.00 28.67     0.052 C 
BRANCH  44  45
HETATM   45  C15 MK1 B 902      20.403  13.226   7.362  1.00 26.89    -0.057 A 
HETATM   46  C16 MK1 B 902      21.539  13.573   8.096  1.00 29.22     0.007 A 
HETATM   47  C17 MK1 B 902      22.808  13.317   7.596  1.00 29.22     0.001 A 
HETATM   48  C18 MK1 B 902      22.928  12.708   6.345  1.00 30.97     0.000 A 
HETATM   49  C19 MK1 B 902      21.791  12.351   5.610  1.00 29.25     0.001 A 
HETATM   50  C20 MK1 B 902      20.522  12.614   6.126  1.00 29.96     0.007 A 
ENDBRANCH  44  45
ENDBRANCH  28  44
ENDBRANCH  27  28
ENDBRANCH  24  27
ENDBRANCH  23  24
ENDBRANCH   4  23
TORSDOF 14
ENDMDL
MODEL 9
REMARK VINA RESULT:      -8.3      6.240     12.599
REMARK  14 active torsions:
REMARK  status: ('A' for Active; 'I' for Inactive)
REMARK    1  A    between atoms: N1_1  and  C31_43 
REMARK    2  A    between atoms: C2_3  and  C3_4 
REMARK       I    between atoms: C3_4  and  N2_6 
REMARK    3  A    between atoms: N2_6  and  C4_8 
REMARK    4  A    between atoms: N3_12  and  C10_15 
REMARK    5  A    between atoms: C10_15  and  C11_16 
REMARK    6  A    between atoms: C11_16  and  O2_17 
REMARK    7  A    between atoms: C11_16  and  C12_19 
REMARK    8  A    between atoms: C12_19  and  C13_20 
REMARK    9  A    between atoms: C13_20  and  C21_28 
REMARK   10  A    between atoms: C13_20  and  C14_21 
REMARK   11  A    between atoms: C14_21  and  C15_22 
REMARK       I    between atoms: C21_28  and  N4_30 
REMARK   12  A    between atoms: N4_30  and  C22_32 
REMARK   13  A    between atoms: C23_33  and  O4_34 
REMARK   14  A    between atoms: C31_43  and  C32_44 
ROOT
HETATM    1  N1  MK1 B 902       2.165  29.889   3.105  1.00 28.25     0.096 N 
HETATM    2  C1  MK1 B 902       2.512  28.577   2.496  1.00 30.30     0.307 C 
HETATM    3  C2  MK1 B 902       2.558  27.310   3.326  1.00 27.27     0.200 C 
HETATM    4  N3  MK1 B 902       3.580  27.667   4.371  1.00 28.91    -0.395 N 
HETATM    5  C8  MK1 B 902       3.558  29.030   4.960  1.00 26.24     0.148 C 
HETATM    6  C9  MK1 B 902       3.141  30.175   4.060  1.00 27.47     0.292 C 
ENDROOT
BRANCH   1   7
HETATM    7  C31 MK1 B 902       1.857  30.995   2.191  1.00 36.25     0.312 C 
BRANCH   7   8
HETATM    8  C32 MK1 B 902       2.913  31.554   1.230  1.00 42.75    -0.015 A 
HETATM    9  C36 MK1 B 902       2.849  31.161  -0.090  1.00 44.71     0.011 A 
HETATM   10  C35 MK1 B 902       3.817  31.649  -0.964  1.00 49.34     0.018 A 
HETATM   11  C34 MK1 B 902       4.814  32.507  -0.490  1.00 50.60     0.087 A 
HETATM   12  N5  MK1 B 902       4.951  32.952   0.824  1.00 51.38    -0.375 N 
HETATM   13  C33 MK1 B 902       3.940  32.417   1.639  1.00 47.41     0.096 A 
HETATM   14  H5  MK1 B 902       5.687  33.579   1.149  1.00  0.00     0.164 HD
ENDBRANCH   7   8
ENDBRANCH   1   7
BRANCH   3  15
HETATM   15  C3  MK1 B 902       2.996  26.177   2.437  1.00 28.85     0.242 C 
HETATM   16  O1  MK1 B 902       4.098  26.198   1.906  1.00 29.59    -0.271 OA
HETATM   17  N2  MK1 B 902       2.138  25.192   2.258  1.00 22.29    -0.351 N 
HETATM   18  H2  MK1 B 902       1.229  25.329   2.702  1.00  0.00     0.163 HD
BRANCH  17  19
HETATM   19  C4  MK1 B 902       2.276  23.964   1.542  1.00 23.47     0.022 C 
HETATM   20  C7  MK1 B 902       1.055  23.151   1.532  1.00 22.75     0.037 C 
HETATM   21  C5  MK1 B 902       3.304  23.111   2.307  1.00 27.66     0.037 C 
HETATM   22  C6  MK1 B 902       2.677  24.138   0.227  1.00 21.71     0.037 C 
ENDBRANCH  17  19
ENDBRANCH   3  15
BRANCH   4  23
HETATM   23  C10 MK1 B 902       3.828  26.701   5.423  1.00 20.86     0.149 C 
BRANCH  23  24
HETATM   24  C11 MK1 B 902       4.382  27.309   6.713  1.00 21.68     0.136 C 
BRANCH  24  25
HETATM   25  O2  MK1 B 902       3.486  26.651   7.557  1.00 15.87    -0.394 OA
HETATM   26  H2  MK1 B 902       3.914  25.870   7.888  1.00  0.00     0.210 HD
ENDBRANCH  24  25
BRANCH  24  27
HETATM   27  C12 MK1 B 902       5.806  27.061   7.244  1.00 21.49     0.047 C 
BRANCH  27  28
HETATM   28  C13 MK1 B 902       6.966  27.976   6.827  1.00 26.89     0.084 C 
BRANCH  28  29
HETATM   29  C21 MK1 B 902       7.863  27.325   5.782  1.00 29.35     0.222 C 
HETATM   30  N4  MK1 B 902       7.493  26.108   5.392  1.00 31.19    -0.350 N 
HETATM   31  H4  MK1 B 902       6.814  25.591   5.950  1.00  0.00     0.163 HD
HETATM   32  O3  MK1 B 902       8.797  27.958   5.268  1.00 32.66    -0.273 OA
BRANCH  30  33
HETATM   33  C22 MK1 B 902       8.034  25.497   4.190  1.00 29.22     0.147 C 
HETATM   34  C30 MK1 B 902       9.120  24.400   4.344  1.00 31.86    -0.027 A 
HETATM   35  C29 MK1 B 902      10.165  24.237   5.196  1.00 27.70     0.010 A 
HETATM   36  C25 MK1 B 902       8.934  23.275   3.285  1.00 31.29    -0.047 A 
HETATM   37  C28 MK1 B 902      11.003  23.133   5.121  1.00 29.01     0.001 A 
HETATM   38  C27 MK1 B 902      10.817  22.118   4.170  1.00 28.00     0.001 A 
HETATM   39  C26 MK1 B 902       9.773  22.187   3.241  1.00 32.00     0.008 A 
HETATM   40  C24 MK1 B 902       7.705  23.759   2.555  1.00 32.05     0.073 C 
HETATM   41  C23 MK1 B 902       6.962  24.783   3.382  1.00 28.82     0.149 C 
BRANCH  41  42
HETATM   42  O4  MK1 B 902       5.984  24.225   4.247  1.00 28.32    -0.393 OA
HETATM   43  H4  MK1 B 902       5.435  23.613   3.772  1.00  0.00     0.210 HD
ENDBRANCH  41  42
ENDBRANCH  30  33
ENDBRANCH  28  29
BRANCH  28  44
HETATM   44  C14 MK1 B 902       7.829  28.405   8.026  1.00 28.67     0.052 C 
BRANCH  44  45
HETATM   45  C15 MK1 B 902       8.772  27.342   8.457  1.00 26.89    -0.057 A 
HETATM   46  C16 MK1 B 902       8.345  26.072   8.850  1.00 29.22     0.007 A 
HETATM   47  C17 MK1 B 902       9.259  25.121   9.280  1.00 29.22     0.001 A 
HETATM   48  C18 MK1 B 902      10.614  25.458   9.314  1.00 30.97     0.000 A 
HETATM   49  C19 MK1 B 902      11.047  26.727   8.913  1.00 29.25     0.001 A 
HETATM   50  C20 MK1 B 902      10.116  27.673   8.482  1.00 29.96     0.007 A 
ENDBRANCH  44  45
ENDBRANCH  28  44
ENDBRANCH  27  28
ENDBRANCH  24  27
ENDBRANCH  23  24
ENDBRANCH   4  23
TORSDOF 14
ENDMDL
MODEL 10
REMARK VINA RESULT:      -8.1      4.655      8.346
REMARK  14 active torsions:
REMARK  status: ('A' for Active; 'I' for Inactive)
REMARK    1  A    between atoms: N1_1  and  C31_43 
REMARK    2  A    between atoms: C2_3  and  C3_4 
REMARK       I    between atoms: C3_4  and  N2_6 
REMARK    3  A    between atoms: N2_6  and  C4_8 
REMARK    4  A    between atoms: N3_12  and  C10_15 
REMARK    5  A    between atoms: C10_15  and  C11_16 
REMARK    6  A    between atoms: C11_16  and  O2_17 
REMARK    7  A    between atoms: C11_16  and  C12_19 
REMARK    8  A    between atoms: C12_19  and  C13_20 
REMARK    9  A    between atoms: C13_20  and  C21_28 
REMARK   10  A    between atoms: C13_20  and  C14_21 
REMARK   11  A    between atoms: C14_21  and  C15_22 
REMARK       I    between atoms: C21_28  and  N4_30 
REMARK   12  A    between atoms: N4_30  and  C22_32 
REMARK   13  A    between atoms: C23_33  and  O4_34 
REMARK   14  A    between atoms: C31_43  and  C32_44 
ROOT
HETATM    1  N1  MK1 B 902      10.898  23.291   3.690  1.00 28.25     0.096 N 
HETATM    2  C1  MK1 B 902       9.441  23.155   3.426  1.00 30.30     0.307 C 
HETATM    3  C2  MK1 B 902       8.637  24.296   2.835  1.00 27.27     0.200 C 
HETATM    4  N3  MK1 B 902       8.869  25.388   3.843  1.00 28.91    -0.395 N 
HETATM    5  C8  MK1 B 902      10.227  25.557   4.419  1.00 26.24     0.148 C 
HETATM    6  C9  MK1 B 902      11.058  24.307   4.630  1.00 27.47     0.292 C 
ENDROOT
BRANCH   1   7
HETATM    7  C31 MK1 B 902      11.646  22.061   3.981  1.00 36.25     0.312 C 
BRANCH   7   8
HETATM    8  C32 MK1 B 902      12.953  22.092   4.782  1.00 42.75    -0.015 A 
HETATM    9  C36 MK1 B 902      12.923  21.609   6.073  1.00 44.71     0.011 A 
HETATM   10  C35 MK1 B 902      14.102  21.652   6.812  1.00 49.34     0.018 A 
HETATM   11  C34 MK1 B 902      15.265  22.178   6.240  1.00 50.60     0.087 A 
HETATM   12  N5  MK1 B 902      15.380  22.685   4.947  1.00 51.38    -0.375 N 
HETATM   13  C33 MK1 B 902      14.153  22.605   4.269  1.00 47.41     0.096 A 
HETATM   14  H5  MK1 B 902      16.239  23.064   4.548  1.00  0.00     0.164 HD
ENDBRANCH   7   8
ENDBRANCH   1   7
BRANCH   3  15
HETATM   15  C3  MK1 B 902       7.197  23.868   2.750  1.00 28.85     0.242 C 
HETATM   16  O1  MK1 B 902       6.794  22.920   3.412  1.00 29.59    -0.271 OA
HETATM   17  N2  MK1 B 902       6.418  24.547   1.931  1.00 22.29    -0.351 N 
HETATM   18  H2  MK1 B 902       6.893  25.269   1.388  1.00  0.00     0.163 HD
BRANCH  17  19
HETATM   19  C4  MK1 B 902       5.016  24.435   1.683  1.00 23.47     0.022 C 
HETATM   20  C7  MK1 B 902       4.294  25.704   1.821  1.00 22.75     0.037 C 
HETATM   21  C5  MK1 B 902       4.434  23.536   2.789  1.00 27.66     0.037 C 
HETATM   22  C6  MK1 B 902       4.720  23.916   0.433  1.00 21.71     0.037 C 
ENDBRANCH  17  19
ENDBRANCH   3  15
BRANCH   4  23
HETATM   23  C10 MK1 B 902       8.312  26.695   3.557  1.00 20.86     0.149 C 
BRANCH  23  24
HETATM   24  C11 MK1 B 902       7.287  27.177   4.585  1.00 21.68     0.136 C 
BRANCH  24  25
HETATM   25  O2  MK1 B 902       6.610  25.959   4.669  1.00 15.87    -0.394 OA
HETATM   26  H2  MK1 B 902       6.349  25.831   5.574  1.00  0.00     0.210 HD
ENDBRANCH  24  25
BRANCH  24  27
HETATM   27  C12 MK1 B 902       7.642  27.624   6.015  1.00 21.49     0.047 C 
BRANCH  27  28
HETATM   28  C13 MK1 B 902       6.791  27.172   7.210  1.00 26.89     0.084 C 
BRANCH  28  29
HETATM   29  C21 MK1 B 902       5.328  27.571   7.054  1.00 29.35     0.222 C 
HETATM   30  N4  MK1 B 902       5.101  28.879   6.961  1.00 31.19    -0.350 N 
HETATM   31  H4  MK1 B 902       5.836  29.532   7.230  1.00  0.00     0.163 HD
HETATM   32  O3  MK1 B 902       4.450  26.707   6.912  1.00 32.66    -0.273 OA
BRANCH  30  33
HETATM   33  C22 MK1 B 902       3.830  29.398   6.486  1.00 29.22     0.147 C 
HETATM   34  C30 MK1 B 902       2.633  29.436   7.471  1.00 31.86    -0.027 A 
HETATM   35  C29 MK1 B 902       2.207  28.596   8.452  1.00 27.70     0.010 A 
HETATM   36  C25 MK1 B 902       1.773  30.714   7.259  1.00 31.29    -0.047 A 
HETATM   37  C28 MK1 B 902       1.078  28.875   9.211  1.00 29.01     0.001 A 
HETATM   38  C27 MK1 B 902       0.318  30.038   9.019  1.00 28.00     0.001 A 
HETATM   39  C26 MK1 B 902       0.665  30.969   8.034  1.00 32.00     0.008 A 
HETATM   40  C24 MK1 B 902       2.532  31.399   6.150  1.00 32.05     0.073 C 
HETATM   41  C23 MK1 B 902       3.936  30.849   6.047  1.00 28.82     0.149 C 
BRANCH  41  42
HETATM   42  O4  MK1 B 902       4.884  31.538   6.850  1.00 28.32    -0.393 OA
HETATM   43  H4  MK1 B 902       4.748  31.332   7.768  1.00  0.00     0.210 HD
ENDBRANCH  41  42
ENDBRANCH  30  33
ENDBRANCH  28  29
BRANCH  28  44
HETATM   44  C14 MK1 B 902       7.318  27.726   8.545  1.00 28.67     0.052 C 
BRANCH  44  45
HETATM   45  C15 MK1 B 902       8.667  27.204   8.882  1.00 26.89    -0.057 A 
HETATM   46  C16 MK1 B 902       8.890  25.874   9.244  1.00 29.22     0.007 A 
HETATM   47  C17 MK1 B 902      10.161  25.439   9.587  1.00 29.22     0.001 A 
HETATM   48  C18 MK1 B 902      11.214  26.356   9.566  1.00 30.97     0.000 A 
HETATM   49  C19 MK1 B 902      10.996  27.689   9.197  1.00 29.25     0.001 A 
HETATM   50  C20 MK1 B 902       9.712  28.111   8.853  1.00 29.96     0.007 A 
ENDBRANCH  44  45
ENDBRANCH  28  44
ENDBRANCH  27  28
ENDBRANCH  24  27
ENDBRANCH  23  24
ENDBRANCH   4  23
TORSDOF 14
ENDMDL
MODEL 11
REMARK VINA RESULT:      -8.0      4.555     12.743
REMARK  14 active torsions:
REMARK  status: ('A' for Active; 'I' for Inactive)
REMARK    1  A    between atoms: N1_1  and  C31_43 
REMARK    2  A    between atoms: C2_3  and  C3_4 
REMARK       I    between atoms: C3_4  and  N2_6 
REMARK    3  A    between atoms: N2_6  and  C4_8 
REMARK    4  A    between atoms: N3_12  and  C10_15 
REMARK    5  A    between atoms: C10_15  and  C11_16 
REMARK    6  A    between atoms: C11_16  and  O2_17 
REMARK    7  A    between atoms: C11_16  and  C12_19 
REMARK    8  A    between atoms: C12_19  and  C13_20 
REMARK    9  A    between atoms: C13_20  and  C21_28 
REMARK   10  A    between atoms: C13_20  and  C14_21 
REMARK   11  A    between atoms: C14_21  and  C15_22 
REMARK       I    between atoms: C21_28  and  N4_30 
REMARK   12  A    between atoms: N4_30  and  C22_32 
REMARK   13  A    between atoms: C23_33  and  O4_34 
REMARK   14  A    between atoms: C31_43  and  C32_44 
ROOT
HETATM    1  N1  MK1 B 902      15.613  19.921   3.631  1.00 28.25     0.096 N 
HETATM    2  C1  MK1 B 902      16.328  20.162   4.914  1.00 30.30     0.307 C 
HETATM    3  C2  MK1 B 902      17.721  19.615   5.154  1.00 27.27     0.200 C 
HETATM    4  N3  MK1 B 902      17.507  18.138   4.964  1.00 28.91    -0.395 N 
HETATM    5  C8  MK1 B 902      16.626  17.676   3.862  1.00 26.24     0.148 C 
HETATM    6  C9  MK1 B 902      15.436  18.544   3.506  1.00 27.47     0.292 C 
ENDROOT
BRANCH   1   7
HETATM    7  C31 MK1 B 902      14.411  20.722   3.371  1.00 36.25     0.312 C 
BRANCH   7   8
HETATM    8  C32 MK1 B 902      14.225  22.109   3.997  1.00 42.75    -0.015 A 
HETATM    9  C36 MK1 B 902      12.936  22.531   4.246  1.00 44.71     0.011 A 
HETATM   10  C35 MK1 B 902      12.760  23.799   4.795  1.00 49.34     0.018 A 
HETATM   11  C34 MK1 B 902      13.872  24.599   5.073  1.00 50.60     0.087 A 
HETATM   12  N5  MK1 B 902      15.204  24.250   4.853  1.00 51.38    -0.375 N 
HETATM   13  C33 MK1 B 902      15.296  22.962   4.300  1.00 47.41     0.096 A 
HETATM   14  H5  MK1 B 902      16.002  24.848   5.064  1.00  0.00     0.164 HD
ENDBRANCH   7   8
ENDBRANCH   1   7
BRANCH   3  15
HETATM   15  C3  MK1 B 902      18.136  19.975   6.555  1.00 28.85     0.242 C 
HETATM   16  O1  MK1 B 902      19.318  19.960   6.873  1.00 29.59    -0.271 OA
HETATM   17  N2  MK1 B 902      17.175  20.287   7.402  1.00 22.29    -0.351 N 
HETATM   18  H2  MK1 B 902      16.229  20.195   7.030  1.00  0.00     0.163 HD
BRANCH  17  19
HETATM   19  C4  MK1 B 902      17.245  20.732   8.757  1.00 23.47     0.022 C 
HETATM   20  C7  MK1 B 902      17.740  19.709   9.685  1.00 22.75     0.037 C 
HETATM   21  C5  MK1 B 902      15.800  21.003   9.216  1.00 27.66     0.037 C 
HETATM   22  C6  MK1 B 902      18.025  21.865   8.923  1.00 21.71     0.037 C 
ENDBRANCH  17  19
ENDBRANCH   3  15
BRANCH   4  23
HETATM   23  C10 MK1 B 902      18.671  17.277   5.032  1.00 20.86     0.149 C 
BRANCH  23  24
HETATM   24  C11 MK1 B 902      18.873  16.604   6.390  1.00 21.68     0.136 C 
BRANCH  24  25
HETATM   25  O2  MK1 B 902      17.946  15.585   6.165  1.00 15.87    -0.394 OA
HETATM   26  H2  MK1 B 902      17.112  15.988   5.954  1.00  0.00     0.210 HD
ENDBRANCH  24  25
BRANCH  24  27
HETATM   27  C12 MK1 B 902      20.193  15.954   6.845  1.00 21.49     0.047 C 
BRANCH  27  28
HETATM   28  C13 MK1 B 902      20.203  14.538   7.437  1.00 26.89     0.084 C 
BRANCH  28  29
HETATM   29  C21 MK1 B 902      20.359  14.551   8.953  1.00 29.35     0.222 C 
HETATM   30  N4  MK1 B 902      19.460  15.276   9.612  1.00 31.19    -0.350 N 
HETATM   31  H4  MK1 B 902      18.891  15.951   9.100  1.00  0.00     0.163 HD
HETATM   32  O3  MK1 B 902      21.205  13.833   9.507  1.00 32.66    -0.273 OA
BRANCH  30  33
HETATM   33  C22 MK1 B 902      19.267  15.131  11.045  1.00 29.22     0.147 C 
HETATM   34  C30 MK1 B 902      20.004  16.114  11.992  1.00 31.86    -0.027 A 
HETATM   35  C29 MK1 B 902      21.235  16.689  11.964  1.00 27.70     0.010 A 
HETATM   36  C25 MK1 B 902      19.111  16.495  13.208  1.00 31.29    -0.047 A 
HETATM   37  C28 MK1 B 902      21.656  17.560  12.959  1.00 29.01     0.001 A 
HETATM   38  C27 MK1 B 902      20.837  17.906  14.044  1.00 28.00     0.001 A 
HETATM   39  C26 MK1 B 902      19.551  17.370  14.173  1.00 32.00     0.008 A 
HETATM   40  C24 MK1 B 902      17.853  15.720  12.903  1.00 32.05     0.073 C 
HETATM   41  C23 MK1 B 902      17.814  15.319  11.446  1.00 28.82     0.149 C 
BRANCH  41  42
HETATM   42  O4  MK1 B 902      17.191  16.277  10.602  1.00 28.32    -0.393 OA
HETATM   43  H4  MK1 B 902      17.613  16.289   9.751  1.00  0.00     0.210 HD
ENDBRANCH  41  42
ENDBRANCH  30  33
ENDBRANCH  28  29
BRANCH  28  44
HETATM   44  C14 MK1 B 902      21.313  13.661   6.830  1.00 28.67     0.052 C 
BRANCH  44  45
HETATM   45  C15 MK1 B 902      22.335  14.458   6.107  1.00 26.89    -0.057 A 
HETATM   46  C16 MK1 B 902      23.327  15.186   6.767  1.00 29.22     0.007 A 
HETATM   47  C17 MK1 B 902      24.240  15.947   6.052  1.00 29.22     0.001 A 
HETATM   48  C18 MK1 B 902      24.147  15.974   4.659  1.00 30.97     0.000 A 
HETATM   49  C19 MK1 B 902      23.158  15.240   3.992  1.00 29.25     0.001 A 
HETATM   50  C20 MK1 B 902      22.248  14.479   4.726  1.00 29.96     0.007 A 
ENDBRANCH  44  45
ENDBRANCH  28  44
ENDBRANCH  27  28
ENDBRANCH  24  27
ENDBRANCH  23  24
ENDBRANCH   4  23
TORSDOF 14
ENDMDL
MODEL 12
REMARK VINA RESULT:      -7.9      4.648     12.766
REMARK  14 active torsions:
REMARK  status: ('A' for Active; 'I' for Inactive)
REMARK    1  A    between atoms: N1_1  and  C31_43 
REMARK    2  A    between atoms: C2_3  and  C3_4 
REMARK       I    between atoms: C3_4  and  N2_6 
REMARK    3  A    between atoms: N2_6  and  C4_8 
REMARK    4  A    between atoms: N3_12  and  C10_15 
REMARK    5  A    between atoms: C10_15  and  C11_16 
REMARK    6  A    between atoms: C11_16  and  O2_17 
REMARK    7  A    between atoms: C11_16  and  C12_19 
REMARK    8  A    between atoms: C12_19  and  C13_20 
REMARK    9  A    between atoms: C13_20  and  C21_28 
REMARK   10  A    between atoms: C13_20  and  C14_21 
REMARK   11  A    between atoms: C14_21  and  C15_22 
REMARK       I    between atoms: C21_28  and  N4_30 
REMARK   12  A    between atoms: N4_30  and  C22_32 
REMARK   13  A    between atoms: C23_33  and  O4_34 
REMARK   14  A    between atoms: C31_43  and  C32_44 
ROOT
HETATM    1  N1  MK1 B 902      15.726  19.648   3.577  1.00 28.25     0.096 N 
HETATM    2  C1  MK1 B 902      16.323  19.889   4.918  1.00 30.30     0.307 C 
HETATM    3  C2  MK1 B 902      17.702  19.369   5.273  1.00 27.27     0.200 C 
HETATM    4  N3  MK1 B 902      17.536  17.890   5.052  1.00 28.91    -0.395 N 
HETATM    5  C8  MK1 B 902      16.764  17.422   3.873  1.00 26.24     0.148 C 
HETATM    6  C9  MK1 B 902      15.590  18.268   3.425  1.00 27.47     0.292 C 
ENDROOT
BRANCH   1   7
HETATM    7  C31 MK1 B 902      14.534  20.426   3.222  1.00 36.25     0.312 C 
BRANCH   7   8
HETATM    8  C32 MK1 B 902      14.294  21.827   3.798  1.00 42.75    -0.015 A 
HETATM    9  C36 MK1 B 902      15.348  22.445   4.436  1.00 44.71     0.011 A 
HETATM   10  C35 MK1 B 902      15.131  23.709   4.979  1.00 49.34     0.018 A 
HETATM   11  C34 MK1 B 902      13.872  24.308   4.868  1.00 50.60     0.087 A 
HETATM   12  N5  MK1 B 902      12.757  23.754   4.241  1.00 51.38    -0.375 N 
HETATM   13  C33 MK1 B 902      13.058  22.484   3.721  1.00 47.41     0.096 A 
HETATM   14  H5  MK1 B 902      11.847  24.209   4.170  1.00  0.00     0.164 HD
ENDBRANCH   7   8
ENDBRANCH   1   7
BRANCH   3  15
HETATM   15  C3  MK1 B 902      17.987  19.722   6.707  1.00 28.85     0.242 C 
HETATM   16  O1  MK1 B 902      19.133  19.684   7.137  1.00 29.59    -0.271 OA
HETATM   17  N2  MK1 B 902      16.955  20.053   7.459  1.00 22.29    -0.351 N 
HETATM   18  H2  MK1 B 902      16.048  19.979   6.997  1.00  0.00     0.163 HD
BRANCH  17  19
HETATM   19  C4  MK1 B 902      16.904  20.498   8.815  1.00 23.47     0.022 C 
HETATM   20  C7  MK1 B 902      17.922  21.501   9.141  1.00 22.75     0.037 C 
HETATM   21  C5  MK1 B 902      17.256  19.287   9.698  1.00 27.66     0.037 C 
HETATM   22  C6  MK1 B 902      15.670  21.016   9.176  1.00 21.71     0.037 C 
ENDBRANCH  17  19
ENDBRANCH   3  15
BRANCH   4  23
HETATM   23  C10 MK1 B 902      18.709  17.053   5.212  1.00 20.86     0.149 C 
BRANCH  23  24
HETATM   24  C11 MK1 B 902      18.537  15.923   6.228  1.00 21.68     0.136 C 
BRANCH  24  25
HETATM   25  O2  MK1 B 902      19.287  14.991   5.509  1.00 15.87    -0.394 OA
HETATM   26  H2  MK1 B 902      18.758  14.688   4.780  1.00  0.00     0.210 HD
ENDBRANCH  24  25
BRANCH  24  27
HETATM   27  C12 MK1 B 902      19.084  15.965   7.667  1.00 21.49     0.047 C 
BRANCH  27  28
HETATM   28  C13 MK1 B 902      18.795  14.818   8.647  1.00 26.89     0.084 C 
BRANCH  28  29
HETATM   29  C21 MK1 B 902      18.363  15.329  10.016  1.00 29.35     0.222 C 
HETATM   30  N4  MK1 B 902      19.304  15.965  10.710  1.00 31.19    -0.350 N 
HETATM   31  H4  MK1 B 902      20.279  15.874  10.426  1.00  0.00     0.163 HD
HETATM   32  O3  MK1 B 902      17.180  15.243  10.377  1.00 32.66    -0.273 OA
BRANCH  30  33
HETATM   33  C22 MK1 B 902      18.975  16.786  11.862  1.00 29.22     0.147 C 
HETATM   34  C30 MK1 B 902      19.050  16.143  13.272  1.00 31.86    -0.027 A 
HETATM   35  C29 MK1 B 902      18.743  14.909  13.751  1.00 27.70     0.010 A 
HETATM   36  C25 MK1 B 902      19.596  17.155  14.320  1.00 31.29    -0.047 A 
HETATM   37  C28 MK1 B 902      18.915  14.583  15.089  1.00 29.01     0.001 A 
HETATM   38  C27 MK1 B 902      19.421  15.499  16.023  1.00 28.00     0.001 A 
HETATM   39  C26 MK1 B 902      19.766  16.800  15.637  1.00 32.00     0.008 A 
HETATM   40  C24 MK1 B 902      19.846  18.367  13.457  1.00 32.05     0.073 C 
HETATM   41  C23 MK1 B 902      19.907  17.978  11.998  1.00 28.82     0.149 C 
BRANCH  41  42
HETATM   42  O4  MK1 B 902      21.210  17.637  11.547  1.00 28.32    -0.393 OA
HETATM   43  H4  MK1 B 902      21.863  18.152  12.007  1.00  0.00     0.210 HD
ENDBRANCH  41  42
ENDBRANCH  30  33
ENDBRANCH  28  29
BRANCH  28  44
HETATM   44  C14 MK1 B 902      20.005  13.884   8.823  1.00 28.67     0.052 C 
BRANCH  44  45
HETATM   45  C15 MK1 B 902      19.604  12.471   9.037  1.00 26.89    -0.057 A 
HETATM   46  C16 MK1 B 902      18.828  11.761   8.119  1.00 29.22     0.007 A 
HETATM   47  C17 MK1 B 902      18.446  10.453   8.377  1.00 29.22     0.001 A 
HETATM   48  C18 MK1 B 902      18.851   9.859   9.575  1.00 30.97     0.000 A 
HETATM   49  C19 MK1 B 902      19.636  10.564  10.495  1.00 29.25     0.001 A 
HETATM   50  C20 MK1 B 902      20.012  11.878  10.220  1.00 29.96     0.007 A 
ENDBRANCH  44  45
ENDBRANCH  28  44
ENDBRANCH  27  28
ENDBRANCH  24  27
ENDBRANCH  23  24
ENDBRANCH   4  23
TORSDOF 14
ENDMDL
MODEL 13
REMARK VINA RESULT:      -7.7      5.276      9.499
REMARK  14 active torsions:
REMARK  status: ('A' for Active; 'I' for Inactive)
REMARK    1  A    between atoms: N1_1  and  C31_43 
REMARK    2  A    between atoms: C2_3  and  C3_4 
REMARK       I    between atoms: C3_4  and  N2_6 
REMARK    3  A    between atoms: N2_6  and  C4_8 
REMARK    4  A    between atoms: N3_12  and  C10_15 
REMARK    5  A    between atoms: C10_15  and  C11_16 
REMARK    6  A    between atoms: C11_16  and  O2_17 
REMARK    7  A    between atoms: C11_16  and  C12_19 
REMARK    8  A    between atoms: C12_19  and  C13_20 
REMARK    9  A    between atoms: C13_20  and  C21_28 
REMARK   10  A    between atoms: C13_20  and  C14_21 
REMARK   11  A    between atoms: C14_21  and  C15_22 
REMARK       I    between atoms: C21_28  and  N4_30 
REMARK   12  A    between atoms: N4_30  and  C22_32 
REMARK   13  A    between atoms: C23_33  and  O4_34 
REMARK   14  A    between atoms: C31_43  and  C32_44 
ROOT
HETATM    1  N1  MK1 B 902       9.489  27.021   7.987  1.00 28.25     0.096 N 
HETATM    2  C1  MK1 B 902       9.313  26.667   6.553  1.00 30.30     0.307 C 
HETATM    3  C2  MK1 B 902       8.307  27.390   5.680  1.00 27.27     0.200 C 
HETATM    4  N3  MK1 B 902       7.023  27.139   6.424  1.00 28.91    -0.395 N 
HETATM    5  C8  MK1 B 902       7.025  27.217   7.906  1.00 26.24     0.148 C 
HETATM    6  C9  MK1 B 902       8.278  26.767   8.629  1.00 27.47     0.292 C 
ENDROOT
BRANCH   1   7
HETATM    7  C31 MK1 B 902      10.672  26.485   8.671  1.00 36.25     0.312 C 
BRANCH   7   8
HETATM    8  C32 MK1 B 902      11.524  25.376   8.043  1.00 42.75    -0.015 A 
HETATM    9  C36 MK1 B 902      10.865  24.337   7.423  1.00 44.71     0.011 A 
HETATM   10  C35 MK1 B 902      11.633  23.316   6.867  1.00 49.34     0.018 A 
HETATM   11  C34 MK1 B 902      13.027  23.368   6.954  1.00 50.60     0.087 A 
HETATM   12  N5  MK1 B 902      13.770  24.379   7.561  1.00 51.38    -0.375 N 
HETATM   13  C33 MK1 B 902      12.926  25.367   8.094  1.00 47.41     0.096 A 
HETATM   14  H5  MK1 B 902      14.789  24.398   7.613  1.00  0.00     0.164 HD
ENDBRANCH   7   8
ENDBRANCH   1   7
BRANCH   3  15
HETATM   15  C3  MK1 B 902       8.328  26.762   4.313  1.00 28.85     0.242 C 
HETATM   16  O1  MK1 B 902       8.220  27.458   3.311  1.00 29.59    -0.271 OA
HETATM   17  N2  MK1 B 902       8.453  25.451   4.258  1.00 22.29    -0.351 N 
HETATM   18  H2  MK1 B 902       8.465  24.983   5.165  1.00  0.00     0.163 HD
BRANCH  17  19
HETATM   19  C4  MK1 B 902       8.573  24.579   3.133  1.00 23.47     0.022 C 
HETATM   20  C7  MK1 B 902       7.360  24.512   2.312  1.00 22.75     0.037 C 
HETATM   21  C5  MK1 B 902       8.745  23.153   3.687  1.00 27.66     0.037 C 
HETATM   22  C6  MK1 B 902       9.630  24.903   2.298  1.00 21.71     0.037 C 
ENDBRANCH  17  19
ENDBRANCH   3  15
BRANCH   4  23
HETATM   23  C10 MK1 B 902       5.821  27.772   5.918  1.00 20.86     0.149 C 
BRANCH  23  24
HETATM   24  C11 MK1 B 902       5.073  28.613   6.954  1.00 21.68     0.136 C 
BRANCH  24  25
HETATM   25  O2  MK1 B 902       4.840  29.690   6.098  1.00 15.87    -0.394 OA
HETATM   26  H2  MK1 B 902       3.924  29.671   5.845  1.00  0.00     0.210 HD
ENDBRANCH  24  25
BRANCH  24  27
HETATM   27  C12 MK1 B 902       3.729  28.209   7.588  1.00 21.49     0.047 C 
BRANCH  27  28
HETATM   28  C13 MK1 B 902       2.434  28.249   6.765  1.00 26.89     0.084 C 
BRANCH  28  29
HETATM   29  C21 MK1 B 902       2.591  27.561   5.415  1.00 29.35     0.222 C 
HETATM   30  N4  MK1 B 902       2.477  26.236   5.434  1.00 31.19    -0.350 N 
HETATM   31  H4  MK1 B 902       2.535  25.744   6.325  1.00  0.00     0.163 HD
HETATM   32  O3  MK1 B 902       2.700  28.228   4.375  1.00 32.66    -0.273 OA
BRANCH  30  33
HETATM   33  C22 MK1 B 902       2.273  25.472   4.215  1.00 29.22     0.147 C 
HETATM   34  C30 MK1 B 902       2.819  24.021   4.153  1.00 31.86    -0.027 A 
HETATM   35  C29 MK1 B 902       3.944  23.428   4.632  1.00 27.70     0.010 A 
HETATM   36  C25 MK1 B 902       1.847  23.090   3.375  1.00 31.29    -0.047 A 
HETATM   37  C28 MK1 B 902       4.195  22.076   4.438  1.00 29.01     0.001 A 
HETATM   38  C27 MK1 B 902       3.303  21.243   3.746  1.00 28.00     0.001 A 
HETATM   39  C26 MK1 B 902       2.117  21.752   3.207  1.00 32.00     0.008 A 
HETATM   40  C24 MK1 B 902       0.736  24.049   3.027  1.00 32.05     0.073 C 
HETATM   41  C23 MK1 B 902       0.798  25.278   3.904  1.00 28.82     0.149 C 
BRANCH  41  42
HETATM   42  O4  MK1 B 902       0.053  25.165   5.108  1.00 28.32    -0.393 OA
HETATM   43  H4  MK1 B 902       0.393  24.455   5.640  1.00  0.00     0.210 HD
ENDBRANCH  41  42
ENDBRANCH  30  33
ENDBRANCH  28  29
BRANCH  28  44
HETATM   44  C14 MK1 B 902       1.933  29.686   6.536  1.00 28.67     0.052 C 
BRANCH  44  45
HETATM   45  C15 MK1 B 902       0.622  29.941   7.184  1.00 26.89    -0.057 A 
HETATM   46  C16 MK1 B 902       0.479  30.070   8.567  1.00 29.22     0.007 A 
HETATM   47  C17 MK1 B 902      -0.771  30.271   9.133  1.00 29.22     0.001 A 
HETATM   48  C18 MK1 B 902      -1.885  30.341   8.294  1.00 30.97     0.000 A 
HETATM   49  C19 MK1 B 902      -1.745  30.221   6.906  1.00 29.25     0.001 A 
HETATM   50  C20 MK1 B 902      -0.481  30.019   6.352  1.00 29.96     0.007 A 
ENDBRANCH  44  45
ENDBRANCH  28  44
ENDBRANCH  27  28
ENDBRANCH  24  27
ENDBRANCH  23  24
ENDBRANCH   4  23
TORSDOF 14
ENDMDL
